.SUBCKT block512x512n a<17> a<16> a<15> a<14> a<13> a<12> a<11> a<10> a<9>
+a<8> a<7> a<6> a<5> a<4> a<3> a<2> a<1> a<0> ena i_o w_
XI102 net696 i_o ena net690   ctg Lp=0.35u Wp=1.4u Ln=0.35u Wn=1.4u
XI100 ena net690   inv Ln=0.35u Wn=1.4u M=1 Lp=0.35u Wp=1.4u
XI1367 a<0> net696 net9403 net9404 main_ena pre w_   io
XI1366 a<17> a<16> a<15> a<14> a<13> a<12> a<11> a<10> a<9> a<8> a<7> a<6>
+a<5> a<4> a<3> a<2> a<1> a<0> cl<511> cl<510> cl<509> cl<508> cl<507> cl<506>
+cl<505> cl<504> cl<503> cl<502> cl<501> cl<500> cl<499> cl<498> cl<497>
+cl<496> cl<495> cl<494> cl<493> cl<492> cl<491> cl<490> cl<489> cl<488>
+cl<487> cl<486> cl<485> cl<484> cl<483> cl<482> cl<481> cl<480> cl<479>
+cl<478> cl<477> cl<476> cl<475> cl<474> cl<473> cl<472> cl<471> cl<470>
+cl<469> cl<468> cl<467> cl<466> cl<465> cl<464> cl<463> cl<462> cl<461>
+cl<460> cl<459> cl<458> cl<457> cl<456> cl<455> cl<454> cl<453> cl<452>
+cl<451> cl<450> cl<449> cl<448> cl<447> cl<446> cl<445> cl<444> cl<443>
+cl<442> cl<441> cl<440> cl<439> cl<438> cl<437> cl<436> cl<435> cl<434>
+cl<433> cl<432> cl<431> cl<430> cl<429> cl<428> cl<427> cl<426> cl<425>
+cl<424> cl<423> cl<422> cl<421> cl<420> cl<419> cl<418> cl<417> cl<416>
+cl<415> cl<414> cl<413> cl<412> cl<411> cl<410> cl<409> cl<408> cl<407>
+cl<406> cl<405> cl<404> cl<403> cl<402> cl<401> cl<400> cl<399> cl<398>
+cl<397> cl<396> cl<395> cl<394> cl<393> cl<392> cl<391> cl<390> cl<389>
+cl<388> cl<387> cl<386> cl<385> cl<384> cl<383> cl<382> cl<381> cl<380>
+cl<379> cl<378> cl<377> cl<376> cl<375> cl<374> cl<373> cl<372> cl<371>
+cl<370> cl<369> cl<368> cl<367> cl<366> cl<365> cl<364> cl<363> cl<362>
+cl<361> cl<360> cl<359> cl<358> cl<357> cl<356> cl<355> cl<354> cl<353>
+cl<352> cl<351> cl<350> cl<349> cl<348> cl<347> cl<346> cl<345> cl<344>
+cl<343> cl<342> cl<341> cl<340> cl<339> cl<338> cl<337> cl<336> cl<335>
+cl<334> cl<333> cl<332> cl<331> cl<330> cl<329> cl<328> cl<327> cl<326>
+cl<325> cl<324> cl<323> cl<322> cl<321> cl<320> cl<319> cl<318> cl<317>
+cl<316> cl<315> cl<314> cl<313> cl<312> cl<311> cl<310> cl<309> cl<308>
+cl<307> cl<306> cl<305> cl<304> cl<303> cl<302> cl<301> cl<300> cl<299>
+cl<298> cl<297> cl<296> cl<295> cl<294> cl<293> cl<292> cl<291> cl<290>
+cl<289> cl<288> cl<287> cl<286> cl<285> cl<284> cl<283> cl<282> cl<281>
+cl<280> cl<279> cl<278> cl<277> cl<276> cl<275> cl<274> cl<273> cl<272>
+cl<271> cl<270> cl<269> cl<268> cl<267> cl<266> cl<265> cl<264> cl<263>
+cl<262> cl<261> cl<260> cl<259> cl<258> cl<257> cl<256> cl<255> cl<254>
+cl<253> cl<252> cl<251> cl<250> cl<249> cl<248> cl<247> cl<246> cl<245>
+cl<244> cl<243> cl<242> cl<241> cl<240> cl<239> cl<238> cl<237> cl<236>
+cl<235> cl<234> cl<233> cl<232> cl<231> cl<230> cl<229> cl<228> cl<227>
+cl<226> cl<225> cl<224> cl<223> cl<222> cl<221> cl<220> cl<219> cl<218>
+cl<217> cl<216> cl<215> cl<214> cl<213> cl<212> cl<211> cl<210> cl<209>
+cl<208> cl<207> cl<206> cl<205> cl<204> cl<203> cl<202> cl<201> cl<200>
+cl<199> cl<198> cl<197> cl<196> cl<195> cl<194> cl<193> cl<192> cl<191>
+cl<190> cl<189> cl<188> cl<187> cl<186> cl<185> cl<184> cl<183> cl<182>
+cl<181> cl<180> cl<179> cl<178> cl<177> cl<176> cl<175> cl<174> cl<173>
+cl<172> cl<171> cl<170> cl<169> cl<168> cl<167> cl<166> cl<165> cl<164>
+cl<163> cl<162> cl<161> cl<160> cl<159> cl<158> cl<157> cl<156> cl<155>
+cl<154> cl<153> cl<152> cl<151> cl<150> cl<149> cl<148> cl<147> cl<146>
+cl<145> cl<144> cl<143> cl<142> cl<141> cl<140> cl<139> cl<138> cl<137>
+cl<136> cl<135> cl<134> cl<133> cl<132> cl<131> cl<130> cl<129> cl<128>
+cl<127> cl<126> cl<125> cl<124> cl<123> cl<122> cl<121> cl<120> cl<119>
+cl<118> cl<117> cl<116> cl<115> cl<114> cl<113> cl<112> cl<111> cl<110>
+cl<109> cl<108> cl<107> cl<106> cl<105> cl<104> cl<103> cl<102> cl<101>
+cl<100> cl<99> cl<98> cl<97> cl<96> cl<95> cl<94> cl<93> cl<92> cl<91> cl<90>
+cl<89> cl<88> cl<87> cl<86> cl<85> cl<84> cl<83> cl<82> cl<81> cl<80> cl<79>
+cl<78> cl<77> cl<76> cl<75> cl<74> cl<73> cl<72> cl<71> cl<70> cl<69> cl<68>
+cl<67> cl<66> cl<65> cl<64> cl<63> cl<62> cl<61> cl<60> cl<59> cl<58> cl<57>
+cl<56> cl<55> cl<54> cl<53> cl<52> cl<51> cl<50> cl<49> cl<48> cl<47> cl<46>
+cl<45> cl<44> cl<43> cl<42> cl<41> cl<40> cl<39> cl<38> cl<37> cl<36> cl<35>
+cl<34> cl<33> cl<32> cl<31> cl<30> cl<29> cl<28> cl<27> cl<26> cl<25> cl<24>
+cl<23> cl<22> cl<21> cl<20> cl<19> cl<18> cl<17> cl<16> cl<15> cl<14> cl<13>
+cl<12> cl<11> cl<10> cl<9> cl<8> cl<7> cl<6> cl<5> cl<4> cl<3> cl<2> cl<1>
+cl<0> ena l_sel main_ena n_ena p_ena pre r_sel w_ wl<511> wl<510> wl<509>
+wl<508> wl<507> wl<506> wl<505> wl<504> wl<503> wl<502> wl<501> wl<500>
+wl<499> wl<498> wl<497> wl<496> wl<495> wl<494> wl<493> wl<492> wl<491>
+wl<490> wl<489> wl<488> wl<487> wl<486> wl<485> wl<484> wl<483> wl<482>
+wl<481> wl<480> wl<479> wl<478> wl<477> wl<476> wl<475> wl<474> wl<473>
+wl<472> wl<471> wl<470> wl<469> wl<468> wl<467> wl<466> wl<465> wl<464>
+wl<463> wl<462> wl<461> wl<460> wl<459> wl<458> wl<457> wl<456> wl<455>
+wl<454> wl<453> wl<452> wl<451> wl<450> wl<449> wl<448> wl<447> wl<446>
+wl<445> wl<444> wl<443> wl<442> wl<441> wl<440> wl<439> wl<438> wl<437>
+wl<436> wl<435> wl<434> wl<433> wl<432> wl<431> wl<430> wl<429> wl<428>
+wl<427> wl<426> wl<425> wl<424> wl<423> wl<422> wl<421> wl<420> wl<419>
+wl<418> wl<417> wl<416> wl<415> wl<414> wl<413> wl<412> wl<411> wl<410>
+wl<409> wl<408> wl<407> wl<406> wl<405> wl<404> wl<403> wl<402> wl<401>
+wl<400> wl<399> wl<398> wl<397> wl<396> wl<395> wl<394> wl<393> wl<392>
+wl<391> wl<390> wl<389> wl<388> wl<387> wl<386> wl<385> wl<384> wl<383>
+wl<382> wl<381> wl<380> wl<379> wl<378> wl<377> wl<376> wl<375> wl<374>
+wl<373> wl<372> wl<371> wl<370> wl<369> wl<368> wl<367> wl<366> wl<365>
+wl<364> wl<363> wl<362> wl<361> wl<360> wl<359> wl<358> wl<357> wl<356>
+wl<355> wl<354> wl<353> wl<352> wl<351> wl<350> wl<349> wl<348> wl<347>
+wl<346> wl<345> wl<344> wl<343> wl<342> wl<341> wl<340> wl<339> wl<338>
+wl<337> wl<336> wl<335> wl<334> wl<333> wl<332> wl<331> wl<330> wl<329>
+wl<328> wl<327> wl<326> wl<325> wl<324> wl<323> wl<322> wl<321> wl<320>
+wl<319> wl<318> wl<317> wl<316> wl<315> wl<314> wl<313> wl<312> wl<311>
+wl<310> wl<309> wl<308> wl<307> wl<306> wl<305> wl<304> wl<303> wl<302>
+wl<301> wl<300> wl<299> wl<298> wl<297> wl<296> wl<295> wl<294> wl<293>
+wl<292> wl<291> wl<290> wl<289> wl<288> wl<287> wl<286> wl<285> wl<284>
+wl<283> wl<282> wl<281> wl<280> wl<279> wl<278> wl<277> wl<276> wl<275>
+wl<274> wl<273> wl<272> wl<271> wl<270> wl<269> wl<268> wl<267> wl<266>
+wl<265> wl<264> wl<263> wl<262> wl<261> wl<260> wl<259> wl<258> wl<257>
+wl<256> wl<255> wl<254> wl<253> wl<252> wl<251> wl<250> wl<249> wl<248>
+wl<247> wl<246> wl<245> wl<244> wl<243> wl<242> wl<241> wl<240> wl<239>
+wl<238> wl<237> wl<236> wl<235> wl<234> wl<233> wl<232> wl<231> wl<230>
+wl<229> wl<228> wl<227> wl<226> wl<225> wl<224> wl<223> wl<222> wl<221>
+wl<220> wl<219> wl<218> wl<217> wl<216> wl<215> wl<214> wl<213> wl<212>
+wl<211> wl<210> wl<209> wl<208> wl<207> wl<206> wl<205> wl<204> wl<203>
+wl<202> wl<201> wl<200> wl<199> wl<198> wl<197> wl<196> wl<195> wl<194>
+wl<193> wl<192> wl<191> wl<190> wl<189> wl<188> wl<187> wl<186> wl<185>
+wl<184> wl<183> wl<182> wl<181> wl<180> wl<179> wl<178> wl<177> wl<176>
+wl<175> wl<174> wl<173> wl<172> wl<171> wl<170> wl<169> wl<168> wl<167>
+wl<166> wl<165> wl<164> wl<163> wl<162> wl<161> wl<160> wl<159> wl<158>
+wl<157> wl<156> wl<155> wl<154> wl<153> wl<152> wl<151> wl<150> wl<149>
+wl<148> wl<147> wl<146> wl<145> wl<144> wl<143> wl<142> wl<141> wl<140>
+wl<139> wl<138> wl<137> wl<136> wl<135> wl<134> wl<133> wl<132> wl<131>
+wl<130> wl<129> wl<128> wl<127> wl<126> wl<125> wl<124> wl<123> wl<122>
+wl<121> wl<120> wl<119> wl<118> wl<117> wl<116> wl<115> wl<114> wl<113>
+wl<112> wl<111> wl<110> wl<109> wl<108> wl<107> wl<106> wl<105> wl<104>
+wl<103> wl<102> wl<101> wl<100> wl<99> wl<98> wl<97> wl<96> wl<95> wl<94>
+wl<93> wl<92> wl<91> wl<90> wl<89> wl<88> wl<87> wl<86> wl<85> wl<84> wl<83>
+wl<82> wl<81> wl<80> wl<79> wl<78> wl<77> wl<76> wl<75> wl<74> wl<73> wl<72>
+wl<71> wl<70> wl<69> wl<68> wl<67> wl<66> wl<65> wl<64> wl<63> wl<62> wl<61>
+wl<60> wl<59> wl<58> wl<57> wl<56> wl<55> wl<54> wl<53> wl<52> wl<51> wl<50>
+wl<49> wl<48> wl<47> wl<46> wl<45> wl<44> wl<43> wl<42> wl<41> wl<40> wl<39>
+wl<38> wl<37> wl<36> wl<35> wl<34> wl<33> wl<32> wl<31> wl<30> wl<29> wl<28>
+wl<27> wl<26> wl<25> wl<24> wl<23> wl<22> wl<21> wl<20> wl<19> wl<18> wl<17>
+wl<16> wl<15> wl<14> wl<13> wl<12> wl<11> wl<10> wl<9> wl<8> wl<7> wl<6>
+wl<5> wl<4> wl<3> wl<2> wl<1> wl<0>   ctrl256kbm
XI887 cl<34> net9403 net9404 l_sel n_ena p_ena pre r_sel wl<511> wl<510>
+wl<509> wl<508> wl<507> wl<506> wl<505> wl<504> wl<503> wl<502> wl<501>
+wl<500> wl<499> wl<498> wl<497> wl<496> wl<495> wl<494> wl<493> wl<492>
+wl<491> wl<490> wl<489> wl<488> wl<487> wl<486> wl<485> wl<484> wl<483>
+wl<482> wl<481> wl<480> wl<479> wl<478> wl<477> wl<476> wl<475> wl<474>
+wl<473> wl<472> wl<471> wl<470> wl<469> wl<468> wl<467> wl<466> wl<465>
+wl<464> wl<463> wl<462> wl<461> wl<460> wl<459> wl<458> wl<457> wl<456>
+wl<455> wl<454> wl<453> wl<452> wl<451> wl<450> wl<449> wl<448> wl<447>
+wl<446> wl<445> wl<444> wl<443> wl<442> wl<441> wl<440> wl<439> wl<438>
+wl<437> wl<436> wl<435> wl<434> wl<433> wl<432> wl<431> wl<430> wl<429>
+wl<428> wl<427> wl<426> wl<425> wl<424> wl<423> wl<422> wl<421> wl<420>
+wl<419> wl<418> wl<417> wl<416> wl<415> wl<414> wl<413> wl<412> wl<411>
+wl<410> wl<409> wl<408> wl<407> wl<406> wl<405> wl<404> wl<403> wl<402>
+wl<401> wl<400> wl<399> wl<398> wl<397> wl<396> wl<395> wl<394> wl<393>
+wl<392> wl<391> wl<390> wl<389> wl<388> wl<387> wl<386> wl<385> wl<384>
+wl<383> wl<382> wl<381> wl<380> wl<379> wl<378> wl<377> wl<376> wl<375>
+wl<374> wl<373> wl<372> wl<371> wl<370> wl<369> wl<368> wl<367> wl<366>
+wl<365> wl<364> wl<363> wl<362> wl<361> wl<360> wl<359> wl<358> wl<357>
+wl<356> wl<355> wl<354> wl<353> wl<352> wl<351> wl<350> wl<349> wl<348>
+wl<347> wl<346> wl<345> wl<344> wl<343> wl<342> wl<341> wl<340> wl<339>
+wl<338> wl<337> wl<336> wl<335> wl<334> wl<333> wl<332> wl<331> wl<330>
+wl<329> wl<328> wl<327> wl<326> wl<325> wl<324> wl<323> wl<322> wl<321>
+wl<320> wl<319> wl<318> wl<317> wl<316> wl<315> wl<314> wl<313> wl<312>
+wl<311> wl<310> wl<309> wl<308> wl<307> wl<306> wl<305> wl<304> wl<303>
+wl<302> wl<301> wl<300> wl<299> wl<298> wl<297> wl<296> wl<295> wl<294>
+wl<293> wl<292> wl<291> wl<290> wl<289> wl<288> wl<287> wl<286> wl<285>
+wl<284> wl<283> wl<282> wl<281> wl<280> wl<279> wl<278> wl<277> wl<276>
+wl<275> wl<274> wl<273> wl<272> wl<271> wl<270> wl<269> wl<268> wl<267>
+wl<266> wl<265> wl<264> wl<263> wl<262> wl<261> wl<260> wl<259> wl<258>
+wl<257> wl<256> wl<255> wl<254> wl<253> wl<252> wl<251> wl<250> wl<249>
+wl<248> wl<247> wl<246> wl<245> wl<244> wl<243> wl<242> wl<241> wl<240>
+wl<239> wl<238> wl<237> wl<236> wl<235> wl<234> wl<233> wl<232> wl<231>
+wl<230> wl<229> wl<228> wl<227> wl<226> wl<225> wl<224> wl<223> wl<222>
+wl<221> wl<220> wl<219> wl<218> wl<217> wl<216> wl<215> wl<214> wl<213>
+wl<212> wl<211> wl<210> wl<209> wl<208> wl<207> wl<206> wl<205> wl<204>
+wl<203> wl<202> wl<201> wl<200> wl<199> wl<198> wl<197> wl<196> wl<195>
+wl<194> wl<193> wl<192> wl<191> wl<190> wl<189> wl<188> wl<187> wl<186>
+wl<185> wl<184> wl<183> wl<182> wl<181> wl<180> wl<179> wl<178> wl<177>
+wl<176> wl<175> wl<174> wl<173> wl<172> wl<171> wl<170> wl<169> wl<168>
+wl<167> wl<166> wl<165> wl<164> wl<163> wl<162> wl<161> wl<160> wl<159>
+wl<158> wl<157> wl<156> wl<155> wl<154> wl<153> wl<152> wl<151> wl<150>
+wl<149> wl<148> wl<147> wl<146> wl<145> wl<144> wl<143> wl<142> wl<141>
+wl<140> wl<139> wl<138> wl<137> wl<136> wl<135> wl<134> wl<133> wl<132>
+wl<131> wl<130> wl<129> wl<128> wl<127> wl<126> wl<125> wl<124> wl<123>
+wl<122> wl<121> wl<120> wl<119> wl<118> wl<117> wl<116> wl<115> wl<114>
+wl<113> wl<112> wl<111> wl<110> wl<109> wl<108> wl<107> wl<106> wl<105>
+wl<104> wl<103> wl<102> wl<101> wl<100> wl<99> wl<98> wl<97> wl<96> wl<95>
+wl<94> wl<93> wl<92> wl<91> wl<90> wl<89> wl<88> wl<87> wl<86> wl<85> wl<84>
+wl<83> wl<82> wl<81> wl<80> wl<79> wl<78> wl<77> wl<76> wl<75> wl<74> wl<73>
+wl<72> wl<71> wl<70> wl<69> wl<68> wl<67> wl<66> wl<65> wl<64> wl<63> wl<62>
+wl<61> wl<60> wl<59> wl<58> wl<57> wl<56> wl<55> wl<54> wl<53> wl<52> wl<51>
+wl<50> wl<49> wl<48> wl<47> wl<46> wl<45> wl<44> wl<43> wl<42> wl<41> wl<40>
+wl<39> wl<38> wl<37> wl<36> wl<35> wl<34> wl<33> wl<32> wl<31> wl<30> wl<29>
+wl<28> wl<27> wl<26> wl<25> wl<24> wl<23> wl<22> wl<21> wl<20> wl<19> wl<18>
+wl<17> wl<16> wl<15> wl<14> wl<13> wl<12> wl<11> wl<10> wl<9> wl<8> wl<7>
+wl<6> wl<5> wl<4> wl<3> wl<2> wl<1> wl<0>   array512x1
XI888 cl<38> net9403 net9404 l_sel n_ena p_ena pre r_sel wl<511> wl<510>
+wl<509> wl<508> wl<507> wl<506> wl<505> wl<504> wl<503> wl<502> wl<501>
+wl<500> wl<499> wl<498> wl<497> wl<496> wl<495> wl<494> wl<493> wl<492>
+wl<491> wl<490> wl<489> wl<488> wl<487> wl<486> wl<485> wl<484> wl<483>
+wl<482> wl<481> wl<480> wl<479> wl<478> wl<477> wl<476> wl<475> wl<474>
+wl<473> wl<472> wl<471> wl<470> wl<469> wl<468> wl<467> wl<466> wl<465>
+wl<464> wl<463> wl<462> wl<461> wl<460> wl<459> wl<458> wl<457> wl<456>
+wl<455> wl<454> wl<453> wl<452> wl<451> wl<450> wl<449> wl<448> wl<447>
+wl<446> wl<445> wl<444> wl<443> wl<442> wl<441> wl<440> wl<439> wl<438>
+wl<437> wl<436> wl<435> wl<434> wl<433> wl<432> wl<431> wl<430> wl<429>
+wl<428> wl<427> wl<426> wl<425> wl<424> wl<423> wl<422> wl<421> wl<420>
+wl<419> wl<418> wl<417> wl<416> wl<415> wl<414> wl<413> wl<412> wl<411>
+wl<410> wl<409> wl<408> wl<407> wl<406> wl<405> wl<404> wl<403> wl<402>
+wl<401> wl<400> wl<399> wl<398> wl<397> wl<396> wl<395> wl<394> wl<393>
+wl<392> wl<391> wl<390> wl<389> wl<388> wl<387> wl<386> wl<385> wl<384>
+wl<383> wl<382> wl<381> wl<380> wl<379> wl<378> wl<377> wl<376> wl<375>
+wl<374> wl<373> wl<372> wl<371> wl<370> wl<369> wl<368> wl<367> wl<366>
+wl<365> wl<364> wl<363> wl<362> wl<361> wl<360> wl<359> wl<358> wl<357>
+wl<356> wl<355> wl<354> wl<353> wl<352> wl<351> wl<350> wl<349> wl<348>
+wl<347> wl<346> wl<345> wl<344> wl<343> wl<342> wl<341> wl<340> wl<339>
+wl<338> wl<337> wl<336> wl<335> wl<334> wl<333> wl<332> wl<331> wl<330>
+wl<329> wl<328> wl<327> wl<326> wl<325> wl<324> wl<323> wl<322> wl<321>
+wl<320> wl<319> wl<318> wl<317> wl<316> wl<315> wl<314> wl<313> wl<312>
+wl<311> wl<310> wl<309> wl<308> wl<307> wl<306> wl<305> wl<304> wl<303>
+wl<302> wl<301> wl<300> wl<299> wl<298> wl<297> wl<296> wl<295> wl<294>
+wl<293> wl<292> wl<291> wl<290> wl<289> wl<288> wl<287> wl<286> wl<285>
+wl<284> wl<283> wl<282> wl<281> wl<280> wl<279> wl<278> wl<277> wl<276>
+wl<275> wl<274> wl<273> wl<272> wl<271> wl<270> wl<269> wl<268> wl<267>
+wl<266> wl<265> wl<264> wl<263> wl<262> wl<261> wl<260> wl<259> wl<258>
+wl<257> wl<256> wl<255> wl<254> wl<253> wl<252> wl<251> wl<250> wl<249>
+wl<248> wl<247> wl<246> wl<245> wl<244> wl<243> wl<242> wl<241> wl<240>
+wl<239> wl<238> wl<237> wl<236> wl<235> wl<234> wl<233> wl<232> wl<231>
+wl<230> wl<229> wl<228> wl<227> wl<226> wl<225> wl<224> wl<223> wl<222>
+wl<221> wl<220> wl<219> wl<218> wl<217> wl<216> wl<215> wl<214> wl<213>
+wl<212> wl<211> wl<210> wl<209> wl<208> wl<207> wl<206> wl<205> wl<204>
+wl<203> wl<202> wl<201> wl<200> wl<199> wl<198> wl<197> wl<196> wl<195>
+wl<194> wl<193> wl<192> wl<191> wl<190> wl<189> wl<188> wl<187> wl<186>
+wl<185> wl<184> wl<183> wl<182> wl<181> wl<180> wl<179> wl<178> wl<177>
+wl<176> wl<175> wl<174> wl<173> wl<172> wl<171> wl<170> wl<169> wl<168>
+wl<167> wl<166> wl<165> wl<164> wl<163> wl<162> wl<161> wl<160> wl<159>
+wl<158> wl<157> wl<156> wl<155> wl<154> wl<153> wl<152> wl<151> wl<150>
+wl<149> wl<148> wl<147> wl<146> wl<145> wl<144> wl<143> wl<142> wl<141>
+wl<140> wl<139> wl<138> wl<137> wl<136> wl<135> wl<134> wl<133> wl<132>
+wl<131> wl<130> wl<129> wl<128> wl<127> wl<126> wl<125> wl<124> wl<123>
+wl<122> wl<121> wl<120> wl<119> wl<118> wl<117> wl<116> wl<115> wl<114>
+wl<113> wl<112> wl<111> wl<110> wl<109> wl<108> wl<107> wl<106> wl<105>
+wl<104> wl<103> wl<102> wl<101> wl<100> wl<99> wl<98> wl<97> wl<96> wl<95>
+wl<94> wl<93> wl<92> wl<91> wl<90> wl<89> wl<88> wl<87> wl<86> wl<85> wl<84>
+wl<83> wl<82> wl<81> wl<80> wl<79> wl<78> wl<77> wl<76> wl<75> wl<74> wl<73>
+wl<72> wl<71> wl<70> wl<69> wl<68> wl<67> wl<66> wl<65> wl<64> wl<63> wl<62>
+wl<61> wl<60> wl<59> wl<58> wl<57> wl<56> wl<55> wl<54> wl<53> wl<52> wl<51>
+wl<50> wl<49> wl<48> wl<47> wl<46> wl<45> wl<44> wl<43> wl<42> wl<41> wl<40>
+wl<39> wl<38> wl<37> wl<36> wl<35> wl<34> wl<33> wl<32> wl<31> wl<30> wl<29>
+wl<28> wl<27> wl<26> wl<25> wl<24> wl<23> wl<22> wl<21> wl<20> wl<19> wl<18>
+wl<17> wl<16> wl<15> wl<14> wl<13> wl<12> wl<11> wl<10> wl<9> wl<8> wl<7>
+wl<6> wl<5> wl<4> wl<3> wl<2> wl<1> wl<0>   array512x1
XI889 cl<44> net9403 net9404 l_sel n_ena p_ena pre r_sel wl<511> wl<510>
+wl<509> wl<508> wl<507> wl<506> wl<505> wl<504> wl<503> wl<502> wl<501>
+wl<500> wl<499> wl<498> wl<497> wl<496> wl<495> wl<494> wl<493> wl<492>
+wl<491> wl<490> wl<489> wl<488> wl<487> wl<486> wl<485> wl<484> wl<483>
+wl<482> wl<481> wl<480> wl<479> wl<478> wl<477> wl<476> wl<475> wl<474>
+wl<473> wl<472> wl<471> wl<470> wl<469> wl<468> wl<467> wl<466> wl<465>
+wl<464> wl<463> wl<462> wl<461> wl<460> wl<459> wl<458> wl<457> wl<456>
+wl<455> wl<454> wl<453> wl<452> wl<451> wl<450> wl<449> wl<448> wl<447>
+wl<446> wl<445> wl<444> wl<443> wl<442> wl<441> wl<440> wl<439> wl<438>
+wl<437> wl<436> wl<435> wl<434> wl<433> wl<432> wl<431> wl<430> wl<429>
+wl<428> wl<427> wl<426> wl<425> wl<424> wl<423> wl<422> wl<421> wl<420>
+wl<419> wl<418> wl<417> wl<416> wl<415> wl<414> wl<413> wl<412> wl<411>
+wl<410> wl<409> wl<408> wl<407> wl<406> wl<405> wl<404> wl<403> wl<402>
+wl<401> wl<400> wl<399> wl<398> wl<397> wl<396> wl<395> wl<394> wl<393>
+wl<392> wl<391> wl<390> wl<389> wl<388> wl<387> wl<386> wl<385> wl<384>
+wl<383> wl<382> wl<381> wl<380> wl<379> wl<378> wl<377> wl<376> wl<375>
+wl<374> wl<373> wl<372> wl<371> wl<370> wl<369> wl<368> wl<367> wl<366>
+wl<365> wl<364> wl<363> wl<362> wl<361> wl<360> wl<359> wl<358> wl<357>
+wl<356> wl<355> wl<354> wl<353> wl<352> wl<351> wl<350> wl<349> wl<348>
+wl<347> wl<346> wl<345> wl<344> wl<343> wl<342> wl<341> wl<340> wl<339>
+wl<338> wl<337> wl<336> wl<335> wl<334> wl<333> wl<332> wl<331> wl<330>
+wl<329> wl<328> wl<327> wl<326> wl<325> wl<324> wl<323> wl<322> wl<321>
+wl<320> wl<319> wl<318> wl<317> wl<316> wl<315> wl<314> wl<313> wl<312>
+wl<311> wl<310> wl<309> wl<308> wl<307> wl<306> wl<305> wl<304> wl<303>
+wl<302> wl<301> wl<300> wl<299> wl<298> wl<297> wl<296> wl<295> wl<294>
+wl<293> wl<292> wl<291> wl<290> wl<289> wl<288> wl<287> wl<286> wl<285>
+wl<284> wl<283> wl<282> wl<281> wl<280> wl<279> wl<278> wl<277> wl<276>
+wl<275> wl<274> wl<273> wl<272> wl<271> wl<270> wl<269> wl<268> wl<267>
+wl<266> wl<265> wl<264> wl<263> wl<262> wl<261> wl<260> wl<259> wl<258>
+wl<257> wl<256> wl<255> wl<254> wl<253> wl<252> wl<251> wl<250> wl<249>
+wl<248> wl<247> wl<246> wl<245> wl<244> wl<243> wl<242> wl<241> wl<240>
+wl<239> wl<238> wl<237> wl<236> wl<235> wl<234> wl<233> wl<232> wl<231>
+wl<230> wl<229> wl<228> wl<227> wl<226> wl<225> wl<224> wl<223> wl<222>
+wl<221> wl<220> wl<219> wl<218> wl<217> wl<216> wl<215> wl<214> wl<213>
+wl<212> wl<211> wl<210> wl<209> wl<208> wl<207> wl<206> wl<205> wl<204>
+wl<203> wl<202> wl<201> wl<200> wl<199> wl<198> wl<197> wl<196> wl<195>
+wl<194> wl<193> wl<192> wl<191> wl<190> wl<189> wl<188> wl<187> wl<186>
+wl<185> wl<184> wl<183> wl<182> wl<181> wl<180> wl<179> wl<178> wl<177>
+wl<176> wl<175> wl<174> wl<173> wl<172> wl<171> wl<170> wl<169> wl<168>
+wl<167> wl<166> wl<165> wl<164> wl<163> wl<162> wl<161> wl<160> wl<159>
+wl<158> wl<157> wl<156> wl<155> wl<154> wl<153> wl<152> wl<151> wl<150>
+wl<149> wl<148> wl<147> wl<146> wl<145> wl<144> wl<143> wl<142> wl<141>
+wl<140> wl<139> wl<138> wl<137> wl<136> wl<135> wl<134> wl<133> wl<132>
+wl<131> wl<130> wl<129> wl<128> wl<127> wl<126> wl<125> wl<124> wl<123>
+wl<122> wl<121> wl<120> wl<119> wl<118> wl<117> wl<116> wl<115> wl<114>
+wl<113> wl<112> wl<111> wl<110> wl<109> wl<108> wl<107> wl<106> wl<105>
+wl<104> wl<103> wl<102> wl<101> wl<100> wl<99> wl<98> wl<97> wl<96> wl<95>
+wl<94> wl<93> wl<92> wl<91> wl<90> wl<89> wl<88> wl<87> wl<86> wl<85> wl<84>
+wl<83> wl<82> wl<81> wl<80> wl<79> wl<78> wl<77> wl<76> wl<75> wl<74> wl<73>
+wl<72> wl<71> wl<70> wl<69> wl<68> wl<67> wl<66> wl<65> wl<64> wl<63> wl<62>
+wl<61> wl<60> wl<59> wl<58> wl<57> wl<56> wl<55> wl<54> wl<53> wl<52> wl<51>
+wl<50> wl<49> wl<48> wl<47> wl<46> wl<45> wl<44> wl<43> wl<42> wl<41> wl<40>
+wl<39> wl<38> wl<37> wl<36> wl<35> wl<34> wl<33> wl<32> wl<31> wl<30> wl<29>
+wl<28> wl<27> wl<26> wl<25> wl<24> wl<23> wl<22> wl<21> wl<20> wl<19> wl<18>
+wl<17> wl<16> wl<15> wl<14> wl<13> wl<12> wl<11> wl<10> wl<9> wl<8> wl<7>
+wl<6> wl<5> wl<4> wl<3> wl<2> wl<1> wl<0>   array512x1
XI890 cl<39> net9403 net9404 l_sel n_ena p_ena pre r_sel wl<511> wl<510>
+wl<509> wl<508> wl<507> wl<506> wl<505> wl<504> wl<503> wl<502> wl<501>
+wl<500> wl<499> wl<498> wl<497> wl<496> wl<495> wl<494> wl<493> wl<492>
+wl<491> wl<490> wl<489> wl<488> wl<487> wl<486> wl<485> wl<484> wl<483>
+wl<482> wl<481> wl<480> wl<479> wl<478> wl<477> wl<476> wl<475> wl<474>
+wl<473> wl<472> wl<471> wl<470> wl<469> wl<468> wl<467> wl<466> wl<465>
+wl<464> wl<463> wl<462> wl<461> wl<460> wl<459> wl<458> wl<457> wl<456>
+wl<455> wl<454> wl<453> wl<452> wl<451> wl<450> wl<449> wl<448> wl<447>
+wl<446> wl<445> wl<444> wl<443> wl<442> wl<441> wl<440> wl<439> wl<438>
+wl<437> wl<436> wl<435> wl<434> wl<433> wl<432> wl<431> wl<430> wl<429>
+wl<428> wl<427> wl<426> wl<425> wl<424> wl<423> wl<422> wl<421> wl<420>
+wl<419> wl<418> wl<417> wl<416> wl<415> wl<414> wl<413> wl<412> wl<411>
+wl<410> wl<409> wl<408> wl<407> wl<406> wl<405> wl<404> wl<403> wl<402>
+wl<401> wl<400> wl<399> wl<398> wl<397> wl<396> wl<395> wl<394> wl<393>
+wl<392> wl<391> wl<390> wl<389> wl<388> wl<387> wl<386> wl<385> wl<384>
+wl<383> wl<382> wl<381> wl<380> wl<379> wl<378> wl<377> wl<376> wl<375>
+wl<374> wl<373> wl<372> wl<371> wl<370> wl<369> wl<368> wl<367> wl<366>
+wl<365> wl<364> wl<363> wl<362> wl<361> wl<360> wl<359> wl<358> wl<357>
+wl<356> wl<355> wl<354> wl<353> wl<352> wl<351> wl<350> wl<349> wl<348>
+wl<347> wl<346> wl<345> wl<344> wl<343> wl<342> wl<341> wl<340> wl<339>
+wl<338> wl<337> wl<336> wl<335> wl<334> wl<333> wl<332> wl<331> wl<330>
+wl<329> wl<328> wl<327> wl<326> wl<325> wl<324> wl<323> wl<322> wl<321>
+wl<320> wl<319> wl<318> wl<317> wl<316> wl<315> wl<314> wl<313> wl<312>
+wl<311> wl<310> wl<309> wl<308> wl<307> wl<306> wl<305> wl<304> wl<303>
+wl<302> wl<301> wl<300> wl<299> wl<298> wl<297> wl<296> wl<295> wl<294>
+wl<293> wl<292> wl<291> wl<290> wl<289> wl<288> wl<287> wl<286> wl<285>
+wl<284> wl<283> wl<282> wl<281> wl<280> wl<279> wl<278> wl<277> wl<276>
+wl<275> wl<274> wl<273> wl<272> wl<271> wl<270> wl<269> wl<268> wl<267>
+wl<266> wl<265> wl<264> wl<263> wl<262> wl<261> wl<260> wl<259> wl<258>
+wl<257> wl<256> wl<255> wl<254> wl<253> wl<252> wl<251> wl<250> wl<249>
+wl<248> wl<247> wl<246> wl<245> wl<244> wl<243> wl<242> wl<241> wl<240>
+wl<239> wl<238> wl<237> wl<236> wl<235> wl<234> wl<233> wl<232> wl<231>
+wl<230> wl<229> wl<228> wl<227> wl<226> wl<225> wl<224> wl<223> wl<222>
+wl<221> wl<220> wl<219> wl<218> wl<217> wl<216> wl<215> wl<214> wl<213>
+wl<212> wl<211> wl<210> wl<209> wl<208> wl<207> wl<206> wl<205> wl<204>
+wl<203> wl<202> wl<201> wl<200> wl<199> wl<198> wl<197> wl<196> wl<195>
+wl<194> wl<193> wl<192> wl<191> wl<190> wl<189> wl<188> wl<187> wl<186>
+wl<185> wl<184> wl<183> wl<182> wl<181> wl<180> wl<179> wl<178> wl<177>
+wl<176> wl<175> wl<174> wl<173> wl<172> wl<171> wl<170> wl<169> wl<168>
+wl<167> wl<166> wl<165> wl<164> wl<163> wl<162> wl<161> wl<160> wl<159>
+wl<158> wl<157> wl<156> wl<155> wl<154> wl<153> wl<152> wl<151> wl<150>
+wl<149> wl<148> wl<147> wl<146> wl<145> wl<144> wl<143> wl<142> wl<141>
+wl<140> wl<139> wl<138> wl<137> wl<136> wl<135> wl<134> wl<133> wl<132>
+wl<131> wl<130> wl<129> wl<128> wl<127> wl<126> wl<125> wl<124> wl<123>
+wl<122> wl<121> wl<120> wl<119> wl<118> wl<117> wl<116> wl<115> wl<114>
+wl<113> wl<112> wl<111> wl<110> wl<109> wl<108> wl<107> wl<106> wl<105>
+wl<104> wl<103> wl<102> wl<101> wl<100> wl<99> wl<98> wl<97> wl<96> wl<95>
+wl<94> wl<93> wl<92> wl<91> wl<90> wl<89> wl<88> wl<87> wl<86> wl<85> wl<84>
+wl<83> wl<82> wl<81> wl<80> wl<79> wl<78> wl<77> wl<76> wl<75> wl<74> wl<73>
+wl<72> wl<71> wl<70> wl<69> wl<68> wl<67> wl<66> wl<65> wl<64> wl<63> wl<62>
+wl<61> wl<60> wl<59> wl<58> wl<57> wl<56> wl<55> wl<54> wl<53> wl<52> wl<51>
+wl<50> wl<49> wl<48> wl<47> wl<46> wl<45> wl<44> wl<43> wl<42> wl<41> wl<40>
+wl<39> wl<38> wl<37> wl<36> wl<35> wl<34> wl<33> wl<32> wl<31> wl<30> wl<29>
+wl<28> wl<27> wl<26> wl<25> wl<24> wl<23> wl<22> wl<21> wl<20> wl<19> wl<18>
+wl<17> wl<16> wl<15> wl<14> wl<13> wl<12> wl<11> wl<10> wl<9> wl<8> wl<7>
+wl<6> wl<5> wl<4> wl<3> wl<2> wl<1> wl<0>   array512x1
XI891 cl<37> net9403 net9404 l_sel n_ena p_ena pre r_sel wl<511> wl<510>
+wl<509> wl<508> wl<507> wl<506> wl<505> wl<504> wl<503> wl<502> wl<501>
+wl<500> wl<499> wl<498> wl<497> wl<496> wl<495> wl<494> wl<493> wl<492>
+wl<491> wl<490> wl<489> wl<488> wl<487> wl<486> wl<485> wl<484> wl<483>
+wl<482> wl<481> wl<480> wl<479> wl<478> wl<477> wl<476> wl<475> wl<474>
+wl<473> wl<472> wl<471> wl<470> wl<469> wl<468> wl<467> wl<466> wl<465>
+wl<464> wl<463> wl<462> wl<461> wl<460> wl<459> wl<458> wl<457> wl<456>
+wl<455> wl<454> wl<453> wl<452> wl<451> wl<450> wl<449> wl<448> wl<447>
+wl<446> wl<445> wl<444> wl<443> wl<442> wl<441> wl<440> wl<439> wl<438>
+wl<437> wl<436> wl<435> wl<434> wl<433> wl<432> wl<431> wl<430> wl<429>
+wl<428> wl<427> wl<426> wl<425> wl<424> wl<423> wl<422> wl<421> wl<420>
+wl<419> wl<418> wl<417> wl<416> wl<415> wl<414> wl<413> wl<412> wl<411>
+wl<410> wl<409> wl<408> wl<407> wl<406> wl<405> wl<404> wl<403> wl<402>
+wl<401> wl<400> wl<399> wl<398> wl<397> wl<396> wl<395> wl<394> wl<393>
+wl<392> wl<391> wl<390> wl<389> wl<388> wl<387> wl<386> wl<385> wl<384>
+wl<383> wl<382> wl<381> wl<380> wl<379> wl<378> wl<377> wl<376> wl<375>
+wl<374> wl<373> wl<372> wl<371> wl<370> wl<369> wl<368> wl<367> wl<366>
+wl<365> wl<364> wl<363> wl<362> wl<361> wl<360> wl<359> wl<358> wl<357>
+wl<356> wl<355> wl<354> wl<353> wl<352> wl<351> wl<350> wl<349> wl<348>
+wl<347> wl<346> wl<345> wl<344> wl<343> wl<342> wl<341> wl<340> wl<339>
+wl<338> wl<337> wl<336> wl<335> wl<334> wl<333> wl<332> wl<331> wl<330>
+wl<329> wl<328> wl<327> wl<326> wl<325> wl<324> wl<323> wl<322> wl<321>
+wl<320> wl<319> wl<318> wl<317> wl<316> wl<315> wl<314> wl<313> wl<312>
+wl<311> wl<310> wl<309> wl<308> wl<307> wl<306> wl<305> wl<304> wl<303>
+wl<302> wl<301> wl<300> wl<299> wl<298> wl<297> wl<296> wl<295> wl<294>
+wl<293> wl<292> wl<291> wl<290> wl<289> wl<288> wl<287> wl<286> wl<285>
+wl<284> wl<283> wl<282> wl<281> wl<280> wl<279> wl<278> wl<277> wl<276>
+wl<275> wl<274> wl<273> wl<272> wl<271> wl<270> wl<269> wl<268> wl<267>
+wl<266> wl<265> wl<264> wl<263> wl<262> wl<261> wl<260> wl<259> wl<258>
+wl<257> wl<256> wl<255> wl<254> wl<253> wl<252> wl<251> wl<250> wl<249>
+wl<248> wl<247> wl<246> wl<245> wl<244> wl<243> wl<242> wl<241> wl<240>
+wl<239> wl<238> wl<237> wl<236> wl<235> wl<234> wl<233> wl<232> wl<231>
+wl<230> wl<229> wl<228> wl<227> wl<226> wl<225> wl<224> wl<223> wl<222>
+wl<221> wl<220> wl<219> wl<218> wl<217> wl<216> wl<215> wl<214> wl<213>
+wl<212> wl<211> wl<210> wl<209> wl<208> wl<207> wl<206> wl<205> wl<204>
+wl<203> wl<202> wl<201> wl<200> wl<199> wl<198> wl<197> wl<196> wl<195>
+wl<194> wl<193> wl<192> wl<191> wl<190> wl<189> wl<188> wl<187> wl<186>
+wl<185> wl<184> wl<183> wl<182> wl<181> wl<180> wl<179> wl<178> wl<177>
+wl<176> wl<175> wl<174> wl<173> wl<172> wl<171> wl<170> wl<169> wl<168>
+wl<167> wl<166> wl<165> wl<164> wl<163> wl<162> wl<161> wl<160> wl<159>
+wl<158> wl<157> wl<156> wl<155> wl<154> wl<153> wl<152> wl<151> wl<150>
+wl<149> wl<148> wl<147> wl<146> wl<145> wl<144> wl<143> wl<142> wl<141>
+wl<140> wl<139> wl<138> wl<137> wl<136> wl<135> wl<134> wl<133> wl<132>
+wl<131> wl<130> wl<129> wl<128> wl<127> wl<126> wl<125> wl<124> wl<123>
+wl<122> wl<121> wl<120> wl<119> wl<118> wl<117> wl<116> wl<115> wl<114>
+wl<113> wl<112> wl<111> wl<110> wl<109> wl<108> wl<107> wl<106> wl<105>
+wl<104> wl<103> wl<102> wl<101> wl<100> wl<99> wl<98> wl<97> wl<96> wl<95>
+wl<94> wl<93> wl<92> wl<91> wl<90> wl<89> wl<88> wl<87> wl<86> wl<85> wl<84>
+wl<83> wl<82> wl<81> wl<80> wl<79> wl<78> wl<77> wl<76> wl<75> wl<74> wl<73>
+wl<72> wl<71> wl<70> wl<69> wl<68> wl<67> wl<66> wl<65> wl<64> wl<63> wl<62>
+wl<61> wl<60> wl<59> wl<58> wl<57> wl<56> wl<55> wl<54> wl<53> wl<52> wl<51>
+wl<50> wl<49> wl<48> wl<47> wl<46> wl<45> wl<44> wl<43> wl<42> wl<41> wl<40>
+wl<39> wl<38> wl<37> wl<36> wl<35> wl<34> wl<33> wl<32> wl<31> wl<30> wl<29>
+wl<28> wl<27> wl<26> wl<25> wl<24> wl<23> wl<22> wl<21> wl<20> wl<19> wl<18>
+wl<17> wl<16> wl<15> wl<14> wl<13> wl<12> wl<11> wl<10> wl<9> wl<8> wl<7>
+wl<6> wl<5> wl<4> wl<3> wl<2> wl<1> wl<0>   array512x1
XI892 cl<36> net9403 net9404 l_sel n_ena p_ena pre r_sel wl<511> wl<510>
+wl<509> wl<508> wl<507> wl<506> wl<505> wl<504> wl<503> wl<502> wl<501>
+wl<500> wl<499> wl<498> wl<497> wl<496> wl<495> wl<494> wl<493> wl<492>
+wl<491> wl<490> wl<489> wl<488> wl<487> wl<486> wl<485> wl<484> wl<483>
+wl<482> wl<481> wl<480> wl<479> wl<478> wl<477> wl<476> wl<475> wl<474>
+wl<473> wl<472> wl<471> wl<470> wl<469> wl<468> wl<467> wl<466> wl<465>
+wl<464> wl<463> wl<462> wl<461> wl<460> wl<459> wl<458> wl<457> wl<456>
+wl<455> wl<454> wl<453> wl<452> wl<451> wl<450> wl<449> wl<448> wl<447>
+wl<446> wl<445> wl<444> wl<443> wl<442> wl<441> wl<440> wl<439> wl<438>
+wl<437> wl<436> wl<435> wl<434> wl<433> wl<432> wl<431> wl<430> wl<429>
+wl<428> wl<427> wl<426> wl<425> wl<424> wl<423> wl<422> wl<421> wl<420>
+wl<419> wl<418> wl<417> wl<416> wl<415> wl<414> wl<413> wl<412> wl<411>