************************************************************************
* auCdl Netlist:
*
* Library Name: Lassen_DRAMB
* Top Cell Name: dram1gbn
* View Name: schematic
* Netlisted on: Dec 18 16:47:09 2000
************************************************************************


.GLOBAL vddh! gnd! vbb! vdd! vddh2!

************************************************************************
* Library Name: Lassen_DRAM
* Cell Name: ctg
* View Name: schematic
************************************************************************

.SUBCKT ctg C1 C2 N P
MM0 C2 N C1 vbb! NMOS W=Wn L=Ln M=1
MM1 C2 P C1 vdd! PMOS W=Wp L=Lp M=1.0
.ENDS

************************************************************************
* Library Name: Lassen_DRAM
* Cell Name: inv
* View Name: schematic
************************************************************************

.SUBCKT inv A Y
MM1 Y A vdd! vdd! PMOS W=Wp L=Lp M=M
MM12 Y A gnd! vbb! NMOS W=Wn L=Ln M=M
.ENDS

************************************************************************
* Library Name: Lassen_DRAM
* Cell Name: main_sense
* View Name: schematic
************************************************************************

.SUBCKT main_sense ena io io_ o o_ pre
XI165 pre net20   inv Ln=0.35u Wn=4u M=1 Lp=0.35u Wp=8u
MM5 o pre o_ vbb! NMOS W=1.4u L=350.00n M=1
MM2 o_ io net21 vbb! NMOS W=7u L=350.00n M=1
MM3 o io_ net21 vbb! NMOS W=7u L=350.00n M=1
MM4 net21 ena gnd! vbb! NMOS W=7u L=350.00n M=1
MM0 vdd! o_ o vdd! PMOS W=14u L=350.00n M=1
MM1 o_ net20 o vdd! PMOS W=1.4u L=350.00n M=1
MM17 vdd! o o_ vdd! PMOS W=14u L=350.00n M=1
.ENDS

************************************************************************
* Library Name: Lassen_DRAM
* Cell Name: precharge
* View Name: schematic
************************************************************************

.SUBCKT precharge bl bl_ pre
MM4 vddh! pre bl vbb! NMOS W=1.4u L=350.00n M=1
MM6 vddh! pre bl_ vbb! NMOS W=1.4u L=350.00n M=1
MM3 bl pre bl_ vbb! NMOS W=1.4u L=350.00n M=1
.ENDS

************************************************************************
* Library Name: Lassen_DRAM
* Cell Name: io
* View Name: schematic
************************************************************************

.SUBCKT io a0 i_o io io_ main_ena pre w_
MM0 net52 net107 gnd! vbb! NMOS W=1.4u L=350.00n M=1
MM12 i_o net93 net52 vbb! NMOS W=1.4u L=350.00n M=1
MM1 i_o net101 net63 vdd! PMOS W=3.5u L=350.00n M=1
MM2 net63 net107 vdd! vdd! PMOS W=3.5u L=350.00n M=1
XI210 main_ena io io_ net73 net70 pre   main_sense
XI218 net73 net83 net111 a0   ctg Lp=0.35u Wp=3.5u Ln=0.35u Wn=3.5u
XI196 io_ net95 a0 net119   ctg Lp=0.35u Wp=3.5u Ln=0.35u Wn=3.5u
XI164 io net95 net119 a0   ctg Lp=0.35u Wp=3.5u Ln=0.35u Wn=3.5u
XI161 net95 i_o net101 net93   ctg Lp=0.35u Wp=3.5u Ln=0.35u Wn=3.5u
XI217 net70 net83 a0 net111   ctg Lp=0.35u Wp=3.5u Ln=0.35u Wn=3.5u
XI224 net83 net107   inv Ln=0.35u Wn=1.4u M=1 Lp=0.35u Wp=2.8u
XI306 w_ net101   inv Ln=0.35u Wn=4u M=1 Lp=0.35u Wp=8u
XI165 a0 net119   inv Ln=0.35u Wn=4u M=1 Lp=0.35u Wp=8u
XI307 net101 net93   inv Ln=0.35u Wn=4u M=1 Lp=0.35u Wp=8u
XI219 a0 net111   inv Ln=0.35u Wn=4u M=1 Lp=0.35u Wp=8u
XI195 io io_ pre   precharge
CC20 io_ gnd! 200f $[CP]
CC22 io gnd! 200f $[CP]
.ENDS

************************************************************************
* Library Name: Lassen_DRAM
* Cell Name: nand2
* View Name: schematic
************************************************************************

.SUBCKT nand2 A B Y
MM14 net28 B gnd! vbb! NMOS W=Wn L=Ln M=1
MM13 Y A net28 vbb! NMOS W=Wn L=Ln M=1
MM12 Y A vdd! vdd! PMOS W=Wp L=Lp M=1.0
MM11 Y B vdd! vdd! PMOS W=Wp L=Lp M=1.0
.ENDS

************************************************************************
* Library Name: Lassen_DRAM
* Cell Name: nor3
* View Name: schematic
************************************************************************

.SUBCKT nor3 A B C Y
MM16 Y C gnd! vbb! NMOS W=Wn L=Ln M=1
MM17 Y B gnd! vbb! NMOS W=Wn L=Ln M=1
MM18 Y A gnd! vbb! NMOS W=Wn L=Ln M=1
MM9 net29 C vdd! vdd! PMOS W=Wp L=Lp M=1.0
MM10 net25 B net29 vdd! PMOS W=Wp L=Lp M=1.0
MM15 Y A net25 vdd! PMOS W=Wp L=Lp M=1.0
.ENDS

************************************************************************
* Library Name: Lassen_DRAM
* Cell Name: nand5
* View Name: schematic
************************************************************************

.SUBCKT nand5 A B C D E Y
MM3 net40 D net12 vbb! NMOS W=Wn L=Ln M=1
MM1 net60 C net40 vbb! NMOS W=Wn L=Ln M=1
MM14 net28 B net60 vbb! NMOS W=Wn L=Ln M=1
MM13 Y A net28 vbb! NMOS W=Wn L=Ln M=1
MM4 net12 E gnd! vbb! NMOS W=Wn L=Ln M=1
MM5 Y E vdd! vdd! PMOS W=Wp L=Lp M=1
MM2 Y D vdd! vdd! PMOS W=Wp L=Lp M=1
MM0 Y C vdd! vdd! PMOS W=Wp L=Lp M=1
MM12 Y A vdd! vdd! PMOS W=Wp L=Lp M=1
MM11 Y B vdd! vdd! PMOS W=Wp L=Lp M=1
.ENDS

************************************************************************
* Library Name: Lassen_DRAM
* Cell Name: nor4
* View Name: schematic
************************************************************************

.SUBCKT nor4 A B C D Y
MM19 gnd! A Y vbb! NMOS W=Wn L=Ln M=1
MM18 gnd! B Y vbb! NMOS W=Wn L=Ln M=1
MM17 gnd! C Y vbb! NMOS W=Wn L=Ln M=1
MM16 gnd! D Y vbb! NMOS W=Wn L=Ln M=1
MM8 vdd! D net35 vdd! PMOS W=Wp L=Lp M=1.0
MM9 net35 C net31 vdd! PMOS W=Wp L=Lp M=1.0
MM15 net27 A Y vdd! PMOS W=Wp L=Lp M=1.0
MM10 net31 B net27 vdd! PMOS W=Wp L=Lp M=1.0
.ENDS

************************************************************************
* Library Name: Lassen_DRAM
* Cell Name: delay10
* View Name: schematic
************************************************************************

.SUBCKT delay10 A Y
XI47 net011 net39   inv Ln=2u Wn=1u M=1 Lp=2u Wp=1u
XI57 net017 Y   inv Ln=2u Wn=1u M=1 Lp=2u Wp=1u
XI45 net39 net40   inv Ln=2u Wn=1u M=1 Lp=2u Wp=1u
XI44 net40 net023   inv Ln=2u Wn=1u M=1 Lp=2u Wp=1u
XI48 net023 net04   inv Ln=2.5u Wn=1u M=1 Lp=2.5u Wp=1u
XI51 net04 net12   inv Ln=2u Wn=1u M=1 Lp=2u Wp=1u
XI52 net9 net029   inv Ln=2u Wn=1u M=1 Lp=2u Wp=1u
XI53 net029 net017   inv Ln=2u Wn=1u M=1 Lp=2u Wp=1u
XI46 A net011   inv Ln=2u Wn=1u M=1 Lp=2u Wp=1u
XI50 net12 net9   inv Ln=2u Wn=1u M=1 Lp=2u Wp=1u
.ENDS

************************************************************************
* Library Name: Lassen_DRAM
* Cell Name: atd1
* View Name: schematic
************************************************************************

.SUBCKT atd1 A Y
XI58 net32 net22   delay10
XI59 net38 net24   delay10
MM1 net38 net22 net39 vbb! NMOS W=1.4u L=350.00n M=1
MM0 net39 net24 net32 vbb! NMOS W=1.4u L=350.00n M=1
XI68 A net32   inv Ln=0.35u Wn=4u M=1 Lp=0.35u Wp=8u
XI62 net20 Y   inv Ln=0.35u Wn=4u M=1 Lp=0.35u Wp=8u
XI69 net39 net20   inv Ln=0.35u Wn=4u M=1 Lp=0.35u Wp=8u
XI46 net32 net38   inv Ln=0.35u Wn=4u M=1 Lp=0.35u Wp=8u
.ENDS

************************************************************************
* Library Name: Lassen_DRAMB
* Cell Name: atd18m
* View Name: schematic
************************************************************************

.SUBCKT atd18m a<17> a<16> a<15> a<14> a<13> a<12> a<11> a<10> a<9> a<8> a<7>
+a<6> a<5> a<4> a<3> a<2> a<1> a<0> ena w_ y
XI75 net137 ena net159   nand2 Lp=0.35u Wp=16u Ln=0.35u Wn=8u
XI103 net99 net97 net189 net163   nor3 Lp=0.35u Wp=7u Ln=0.35u Wn=3.5u
XI74 net157 net152 net147 net142 net163 net137   nand5 Lp=0.35u Wp=4u Ln=0.35u
+Wn=7u
XI96 net169 net165 net171 net167 net142   nor4 Lp=0.35u Wp=7u Ln=0.35u Wn=3.5u
XI93 net181 net183 net187 net185 net152   nor4 Lp=0.35u Wp=7u Ln=0.35u Wn=3.5u
XI92 net193 net195 net197 net191 net157   nor4 Lp=0.35u Wp=7u Ln=0.35u Wn=3.5u
XI94 net175 net179 net173 net177 net147   nor4 Lp=0.35u Wp=7u Ln=0.35u Wn=3.5u
XI81 net159 y   inv Ln=0.35u Wn=8u M=9 Lp=0.35u Wp=16u
XI101 a<16> net99   atd1
XI102 a<17> net97   atd1
XI97 a<14> net171   atd1
XI98 a<12> net169   atd1
XI71 a<3> net191   atd1
XI99 a<15> net167   atd1
XI79 w_ net189   atd1
XI91 a<10> net173   atd1
XI68 a<0> net193   atd1
XI83 a<4> net181   atd1
XI84 a<5> net183   atd1
XI82 a<7> net185   atd1
XI88 a<8> net175   atd1
XI85 a<6> net187   atd1
XI100 a<13> net165   atd1
XI69 a<1> net195   atd1
XI70 a<2> net197   atd1
XI90 a<11> net177   atd1
XI89 a<9> net179   atd1
.ENDS

************************************************************************
* Library Name: Lassen_DRAM
* Cell Name: col_sel1m
* View Name: schematic
************************************************************************

.SUBCKT col_sel1m a0 a1 a2 ena pre wl xvld
c1 pre 0 1pf
XI32 a0 a1 a2 xvld ena net119  nand5 Lp=0.35u Wp=4u Ln=0.35u Wn=10u
MM17 wl net119 gnd! vbb! NMOS W=14u L=350.00n M=1
MM8  wl net119 vddh2! vddh2! PMOS W=28u L=350.00n M=1.0
.ENDS

************************************************************************
* Library Name: Lassen_DRAM
* Cell Name: col_sel3_8m
* View Name: schematic
************************************************************************

.SUBCKT col_sel3_8m a<2> a<1> a<0> cs<7> cs<6> cs<5> cs<4> cs<3> cs<2> cs<1>
+cs<0> ena pre xvld
XI51 net33 net31 net25 ena pre cs<7> xvld   col_sel1m
XI41 net35 net29 net27 ena pre cs<0> xvld   col_sel1m
XI49 net35 net31 net27 ena pre cs<2> xvld   col_sel1m
XI50 net35 net31 net25 ena pre cs<6> xvld   col_sel1m
XI47 net33 net29 net27 ena pre cs<1> xvld   col_sel1m
XI52 net33 net29 net25 ena pre cs<5> xvld   col_sel1m
XI48 net33 net31 net27 ena pre cs<3> xvld   col_sel1m
XI53 net35 net29 net25 ena pre cs<4> xvld   col_sel1m
XI88 net35 net33   inv Ln=0.35u Wn=4u M=1 Lp=0.35u Wp=8u
XI56 a<2> net27   inv Ln=0.35u Wn=4u M=1 Lp=0.35u Wp=8u
XI90 a<0> net35   inv Ln=0.35u Wn=4u M=1 Lp=0.35u Wp=8u
XI57 net27 net25   inv Ln=0.35u Wn=4u M=1 Lp=0.35u Wp=8u
XI54 net29 net31   inv Ln=0.35u Wn=4u M=1 Lp=0.35u Wp=8u
XI55 a<1> net29   inv Ln=0.35u Wn=4u M=1 Lp=0.35u Wp=8u
.ENDS

************************************************************************
* Library Name: Lassen_DRAM
* Cell Name: decoder4_16
* View Name: schematic
************************************************************************

.SUBCKT decoder4_16 A<3> A<2> A<1> A<0> ENA X<15> X<14> X<13> X<12> X<11>
+X<10> X<9> X<8> X<7> X<6> X<5> X<4> X<3> X<2> X<1> X<0>
XI27 net146 net142 net138 net132 net128 net126   nand5 Lp=0.35u Wp=2.1u
+Ln=0.35u Wn=2.1u
XI17 net146 net117 net138 net134 net128 net131   nand5 Lp=0.35u Wp=2.1u
+Ln=0.35u Wn=2.1u
XI32 net146 net142 net136 net132 net130 net286   nand5 Lp=0.35u Wp=2.1u
+Ln=0.35u Wn=2.1u
XI31 net146 net142 net136 net132 net128 net285   nand5 Lp=0.35u Wp=2.1u
+Ln=0.35u Wn=2.1u
XI30 net146 net142 net136 net134 net130 net150   nand5 Lp=0.35u Wp=2.1u
+Ln=0.35u Wn=2.1u
XI29 net146 net142 net136 net134 net128 net156   nand5 Lp=0.35u Wp=2.1u
+Ln=0.35u Wn=2.1u
XI23 net146 net117 net136 net132 net128 net162   nand5 Lp=0.35u Wp=2.1u
+Ln=0.35u Wn=2.1u
XI19 net146 net117 net138 net132 net128 net168   nand5 Lp=0.35u Wp=2.1u
+Ln=0.35u Wn=2.1u
XI24 net146 net117 net136 net132 net130 net174   nand5 Lp=0.35u Wp=2.1u
+Ln=0.35u Wn=2.1u
XI20 net146 net117 net138 net132 net130 net180   nand5 Lp=0.35u Wp=2.1u
+Ln=0.35u Wn=2.1u
XI21 net146 net117 net136 net134 net128 net186   nand5 Lp=0.35u Wp=2.1u
+Ln=0.35u Wn=2.1u
XI22 net146 net117 net136 net134 net130 net192   nand5 Lp=0.35u Wp=2.1u
+Ln=0.35u Wn=2.1u
XI18 net146 net117 net138 net134 net130 net198   nand5 Lp=0.35u Wp=2.1u
+Ln=0.35u Wn=2.1u
XI26 net146 net142 net138 net134 net130 net204   nand5 Lp=0.35u Wp=2.1u
+Ln=0.35u Wn=2.1u
XI28 net146 net142 net138 net132 net130 net210   nand5 Lp=0.35u Wp=2.1u
+Ln=0.35u Wn=2.1u
XI25 net146 net142 net138 net134 net128 net216   nand5 Lp=0.35u Wp=2.1u
+Ln=0.35u Wn=2.1u
XI93 ENA net144   inv Ln=0.35u Wn=2.1u M=1 Lp=0.35u Wp=4.2u
XI45 net198 X<14>   inv Ln=0.35u Wn=4u M=1 Lp=0.35u Wp=8u
XI46 net168 X<13>   inv Ln=0.35u Wn=4u M=1 Lp=0.35u Wp=8u
XI47 net180 X<12>   inv Ln=0.35u Wn=4u M=1 Lp=0.35u Wp=8u
XI44 net131 X<15>   inv Ln=0.35u Wn=4u M=1 Lp=0.35u Wp=8u
XI48 net186 X<11>   inv Ln=0.35u Wn=4u M=1 Lp=0.35u Wp=8u
XI49 net192 X<10>   inv Ln=0.35u Wn=4u M=1 Lp=0.35u Wp=8u
XI50 net162 X<9>   inv Ln=0.35u Wn=4u M=1 Lp=0.35u Wp=8u
XI51 net174 X<8>   inv Ln=0.35u Wn=4u M=1 Lp=0.35u Wp=8u
XI52 net216 X<7>   inv Ln=0.35u Wn=4u M=1 Lp=0.35u Wp=8u
XI53 net204 X<6>   inv Ln=0.35u Wn=4u M=1 Lp=0.35u Wp=8u
XI54 net126 X<5>   inv Ln=0.35u Wn=4u M=1 Lp=0.35u Wp=8u
XI55 net210 X<4>   inv Ln=0.35u Wn=4u M=1 Lp=0.35u Wp=8u
XI56 net156 X<3>   inv Ln=0.35u Wn=4u M=1 Lp=0.35u Wp=8u
XI57 net150 X<2>   inv Ln=0.35u Wn=4u M=1 Lp=0.35u Wp=8u
XI58 net285 X<1>   inv Ln=0.35u Wn=4u M=1 Lp=0.35u Wp=8u
XI59 net286 X<0>   inv Ln=0.35u Wn=4u M=1 Lp=0.35u Wp=8u
XI42 net144 net146   inv Ln=0.35u Wn=2.1u M=3 Lp=0.35u Wp=4.2u
XI41 A<1> net132   inv Ln=0.35u Wn=2.1u M=1 Lp=0.35u Wp=3.2u
XI40 net132 net134   inv Ln=0.35u Wn=2.1u M=1 Lp=0.35u Wp=3.2u
XI39 net130 net128   inv Ln=0.35u Wn=2.1u M=1 Lp=0.35u Wp=3.2u
XI38 A<0> net130   inv Ln=0.35u Wn=2.1u M=1 Lp=0.35u Wp=3.2u
XI37 A<2> net136   inv Ln=0.35u Wn=2.1u M=1 Lp=0.35u Wp=3.2u
XI33 A<3> net142   inv Ln=0.35u Wn=2.1u M=1 Lp=0.35u Wp=3.2u
XI36 net136 net138   inv Ln=0.35u Wn=2.1u M=1 Lp=0.35u Wp=3.2u
XI35 net142 net117   inv Ln=0.35u Wn=2.1u M=1 Lp=0.35u Wp=3.2u
.ENDS

************************************************************************
* Library Name: Lassen_DRAM
* Cell Name: col_sel7_128
* View Name: schematic
************************************************************************

.SUBCKT col_sel7_128 a<6> a<5> a<4> a<3> a<2> a<1> a<0> cs<127> cs<126>
+cs<125> cs<124> cs<123> cs<122> cs<121> cs<120> cs<119> cs<118> cs<117>
+cs<116> cs<115> cs<114> cs<113> cs<112> cs<111> cs<110> cs<109> cs<108>
+cs<107> cs<106> cs<105> cs<104> cs<103> cs<102> cs<101> cs<100> cs<99> cs<98>
+cs<97> cs<96> cs<95> cs<94> cs<93> cs<92> cs<91> cs<90> cs<89> cs<88> cs<87>
+cs<86> cs<85> cs<84> cs<83> cs<82> cs<81> cs<80> cs<79> cs<78> cs<77> cs<76>
+cs<75> cs<74> cs<73> cs<72> cs<71> cs<70> cs<69> cs<68> cs<67> cs<66> cs<65>
+cs<64> cs<63> cs<62> cs<61> cs<60> cs<59> cs<58> cs<57> cs<56> cs<55> cs<54>
+cs<53> cs<52> cs<51> cs<50> cs<49> cs<48> cs<47> cs<46> cs<45> cs<44> cs<43>
+cs<42> cs<41> cs<40> cs<39> cs<38> cs<37> cs<36> cs<35> cs<34> cs<33> cs<32>
+cs<31> cs<30> cs<29> cs<28> cs<27> cs<26> cs<25> cs<24> cs<23> cs<22> cs<21>
+cs<20> cs<19> cs<18> cs<17> cs<16> cs<15> cs<14> cs<13> cs<12> cs<11> cs<10>
+cs<9> cs<8> cs<7> cs<6> cs<5> cs<4> cs<3> cs<2> cs<1> cs<0> ena pre xvld
XI72 a<2> a<1> a<0> cs<127> cs<126> cs<125> cs<124> cs<123> cs<122> cs<121>
+cs<120> net<15> net201 net213   col_sel3_8m
XI73 a<2> a<1> a<0> cs<95> cs<94> cs<93> cs<92> cs<91> cs<90> cs<89> cs<88>
+net<11> net201 net213   col_sel3_8m
XI74 a<2> a<1> a<0> cs<87> cs<86> cs<85> cs<84> cs<83> cs<82> cs<81> cs<80>
+net<10> net201 net213   col_sel3_8m
XI75 a<2> a<1> a<0> cs<79> cs<78> cs<77> cs<76> cs<75> cs<74> cs<73> cs<72>
+net<9> net201 net213   col_sel3_8m
XI76 a<2> a<1> a<0> cs<103> cs<102> cs<101> cs<100> cs<99> cs<98> cs<97>
+cs<96> net<12> net201 net213   col_sel3_8m
XI77 a<2> a<1> a<0> cs<119> cs<118> cs<117> cs<116> cs<115> cs<114> cs<113>
+cs<112> net<14> net201 net213   col_sel3_8m
XI78 a<2> a<1> a<0> cs<111> cs<110> cs<109> cs<108> cs<107> cs<106> cs<105>
+cs<104> net<13> net201 net213   col_sel3_8m
XI71 a<2> a<1> a<0> cs<71> cs<70> cs<69> cs<68> cs<67> cs<66> cs<65> cs<64>
+net<8> net201 net213   col_sel3_8m
XI63 a<2> a<1> a<0> cs<7> cs<6> cs<5> cs<4> cs<3> cs<2> cs<1> cs<0> net<0>
+net110 net108   col_sel3_8m
XI70 a<2> a<1> a<0> cs<63> cs<62> cs<61> cs<60> cs<59> cs<58> cs<57> cs<56>
+net<7> net110 net108   col_sel3_8m
XI66 a<2> a<1> a<0> cs<31> cs<30> cs<29> cs<28> cs<27> cs<26> cs<25> cs<24>
+net<3> net110 net108   col_sel3_8m
XI65 a<2> a<1> a<0> cs<23> cs<22> cs<21> cs<20> cs<19> cs<18> cs<17> cs<16>
+net<2> net110 net108   col_sel3_8m
XI64 a<2> a<1> a<0> cs<15> cs<14> cs<13> cs<12> cs<11> cs<10> cs<9> cs<8>
+net<1> net110 net108   col_sel3_8m
XI67 a<2> a<1> a<0> cs<39> cs<38> cs<37> cs<36> cs<35> cs<34> cs<33> cs<32>
+net<4> net110 net108   col_sel3_8m
XI69 a<2> a<1> a<0> cs<55> cs<54> cs<53> cs<52> cs<51> cs<50> cs<49> cs<48>
+net<6> net110 net108   col_sel3_8m
XI68 a<2> a<1> a<0> cs<47> cs<46> cs<45> cs<44> cs<43> cs<42> cs<41> cs<40>
+net<5> net110 net108   col_sel3_8m
XI61 a<6> a<5> a<4> a<3> ena net<15> net<14> net<13> net<12> net<11> net<10>
+net<9> net<8> net<7> net<6> net<5> net<4> net<3> net<2> net<1> net<0>  
+decoder4_16
XI81 pre net199   inv Ln=0.35u Wn=8u M=27 Lp=0.35u Wp=16u
XI84 xvld net211   inv Ln=0.35u Wn=10u M=6 Lp=0.35u Wp=20u
XI55 pre net112   inv Ln=0.35u Wn=8u M=27 Lp=0.35u Wp=16u
XI54 net112 net110   inv Ln=0.35u Wn=8u M=81 Lp=0.35u Wp=16u
XI82 net199 net201   inv Ln=0.35u Wn=8u M=81 Lp=0.35u Wp=16u
XI79 net106 net108   inv Ln=0.35u Wn=10u M=18 Lp=0.35u Wp=20u
XI80 xvld net106   inv Ln=0.35u Wn=10u M=6 Lp=0.35u Wp=20u
XI83 net211 net213   inv Ln=0.35u Wn=10u M=18 Lp=0.35u Wp=20u
.ENDS

************************************************************************
* Library Name: Lassen_DRAM
* Cell Name: nand3
* View Name: schematic
************************************************************************

.SUBCKT nand3 A B C Y
MM1 net60 C gnd! vbb! NMOS W=Wn L=Ln M=1
MM14 net28 B net60 vbb! NMOS W=Wn L=Ln M=1
MM13 Y A net28 vbb! NMOS W=Wn L=Ln M=1
MM0 Y C vdd! vdd! PMOS W=Wp L=Lp M=1.0
MM12 Y A vdd! vdd! PMOS W=Wp L=Lp M=1.0
MM11 Y B vdd! vdd! PMOS W=Wp L=Lp M=1.0
.ENDS

************************************************************************
* Library Name: Lassen_DRAM
* Cell Name: decoder2_4
* View Name: schematic
************************************************************************

.SUBCKT decoder2_4 A<1> A<0> ENA X<3> X<2> X<1> X<0>
XI32 net132 net142 net136 net286   nand3 Lp=0.35u Wp=2.1u Ln=0.35u Wn=2.1u
XI31 net132 net128 net136 net285   nand3 Lp=0.35u Wp=2.1u Ln=0.35u Wn=2.1u
XI30 net134 net142 net136 net150   nand3 Lp=0.35u Wp=2.1u Ln=0.35u Wn=2.1u
XI29 net134 net128 net136 net156   nand3 Lp=0.35u Wp=2.1u Ln=0.35u Wn=2.1u
XI93 ENA net144   inv Ln=0.35u Wn=2.1u M=1 Lp=0.35u Wp=4.2u
XI56 net156 X<3>   inv Ln=0.35u Wn=4u M=1 Lp=0.35u Wp=8u
XI57 net150 X<2>   inv Ln=0.35u Wn=4u M=1 Lp=0.35u Wp=8u
XI58 net285 X<1>   inv Ln=0.35u Wn=4u M=1 Lp=0.35u Wp=8u
XI59 net286 X<0>   inv Ln=0.35u Wn=4u M=1 Lp=0.35u Wp=8u
XI42 net144 net136   inv Ln=0.35u Wn=2.1u M=3 Lp=0.35u Wp=4.2u
XI41 A<1> net132   inv Ln=0.35u Wn=2.1u M=1 Lp=0.35u Wp=3.2u
XI40 net132 net134   inv Ln=0.35u Wn=2.1u M=1 Lp=0.35u Wp=3.2u
XI39 net142 net128   inv Ln=0.35u Wn=2.1u M=1 Lp=0.35u Wp=3.2u
XI38 A<0> net142   inv Ln=0.35u Wn=2.1u M=1 Lp=0.35u Wp=3.2u
.ENDS

************************************************************************
* Library Name: Lassen_DRAM
* Cell Name: col_sel9_512
* View Name: schematic
************************************************************************

.SUBCKT col_sel9_512 a<8> a<7> a<6> a<5> a<4> a<3> a<2> a<1> a<0> cs<511>
+cs<510> cs<509> cs<508> cs<507> cs<506> cs<505> cs<504> cs<503> cs<502>
+cs<501> cs<500> cs<499> cs<498> cs<497> cs<496> cs<495> cs<494> cs<493>
+cs<492> cs<491> cs<490> cs<489> cs<488> cs<487> cs<486> cs<485> cs<484>
+cs<483> cs<482> cs<481> cs<480> cs<479> cs<478> cs<477> cs<476> cs<475>
+cs<474> cs<473> cs<472> cs<471> cs<470> cs<469> cs<468> cs<467> cs<466>
+cs<465> cs<464> cs<463> cs<462> cs<461> cs<460> cs<459> cs<458> cs<457>
+cs<456> cs<455> cs<454> cs<453> cs<452> cs<451> cs<450> cs<449> cs<448>
+cs<447> cs<446> cs<445> cs<444> cs<443> cs<442> cs<441> cs<440> cs<439>
+cs<438> cs<437> cs<436> cs<435> cs<434> cs<433> cs<432> cs<431> cs<430>
+cs<429> cs<428> cs<427> cs<426> cs<425> cs<424> cs<423> cs<422> cs<421>
+cs<420> cs<419> cs<418> cs<417> cs<416> cs<415> cs<414> cs<413> cs<412>
+cs<411> cs<410> cs<409> cs<408> cs<407> cs<406> cs<405> cs<404> cs<403>
+cs<402> cs<401> cs<400> cs<399> cs<398> cs<397> cs<396> cs<395> cs<394>
+cs<393> cs<392> cs<391> cs<390> cs<389> cs<388> cs<387> cs<386> cs<385>
+cs<384> cs<383> cs<382> cs<381> cs<380> cs<379> cs<378> cs<377> cs<376>
+cs<375> cs<374> cs<373> cs<372> cs<371> cs<370> cs<369> cs<368> cs<367>
+cs<366> cs<365> cs<364> cs<363> cs<362> cs<361> cs<360> cs<359> cs<358>
+cs<357> cs<356> cs<355> cs<354> cs<353> cs<352> cs<351> cs<350> cs<349>
+cs<348> cs<347> cs<346> cs<345> cs<344> cs<343> cs<342> cs<341> cs<340>
+cs<339> cs<338> cs<337> cs<336> cs<335> cs<334> cs<333> cs<332> cs<331>
+cs<330> cs<329> cs<328> cs<327> cs<326> cs<325> cs<324> cs<323> cs<322>
+cs<321> cs<320> cs<319> cs<318> cs<317> cs<316> cs<315> cs<314> cs<313>
+cs<312> cs<311> cs<310> cs<309> cs<308> cs<307> cs<306> cs<305> cs<304>
+cs<303> cs<302> cs<301> cs<300> cs<299> cs<298> cs<297> cs<296> cs<295>
+cs<294> cs<293> cs<292> cs<291> cs<290> cs<289> cs<288> cs<287> cs<286>
+cs<285> cs<284> cs<283> cs<282> cs<281> cs<280> cs<279> cs<278> cs<277>
+cs<276> cs<275> cs<274> cs<273> cs<272> cs<271> cs<270> cs<269> cs<268>
+cs<267> cs<266> cs<265> cs<264> cs<263> cs<262> cs<261> cs<260> cs<259>
+cs<258> cs<257> cs<256> cs<255> cs<254> cs<253> cs<252> cs<251> cs<250>
+cs<249> cs<248> cs<247> cs<246> cs<245> cs<244> cs<243> cs<242> cs<241>
+cs<240> cs<239> cs<238> cs<237> cs<236> cs<235> cs<234> cs<233> cs<232>
+cs<231> cs<230> cs<229> cs<228> cs<227> cs<226> cs<225> cs<224> cs<223>
+cs<222> cs<221> cs<220> cs<219> cs<218> cs<217> cs<216> cs<215> cs<214>
+cs<213> cs<212> cs<211> cs<210> cs<209> cs<208> cs<207> cs<206> cs<205>
+cs<204> cs<203> cs<202> cs<201> cs<200> cs<199> cs<198> cs<197> cs<196>
+cs<195> cs<194> cs<193> cs<192> cs<191> cs<190> cs<189> cs<188> cs<187>
+cs<186> cs<185> cs<184> cs<183> cs<182> cs<181> cs<180> cs<179> cs<178>
+cs<177> cs<176> cs<175> cs<174> cs<173> cs<172> cs<171> cs<170> cs<169>
+cs<168> cs<167> cs<166> cs<165> cs<164> cs<163> cs<162> cs<161> cs<160>
+cs<159> cs<158> cs<157> cs<156> cs<155> cs<154> cs<153> cs<152> cs<151>
+cs<150> cs<149> cs<148> cs<147> cs<146> cs<145> cs<144> cs<143> cs<142>
+cs<141> cs<140> cs<139> cs<138> cs<137> cs<136> cs<135> cs<134> cs<133>
+cs<132> cs<131> cs<130> cs<129> cs<128> cs<127> cs<126> cs<125> cs<124>
+cs<123> cs<122> cs<121> cs<120> cs<119> cs<118> cs<117> cs<116> cs<115>
+cs<114> cs<113> cs<112> cs<111> cs<110> cs<109> cs<108> cs<107> cs<106>
+cs<105> cs<104> cs<103> cs<102> cs<101> cs<100> cs<99> cs<98> cs<97> cs<96>
+cs<95> cs<94> cs<93> cs<92> cs<91> cs<90> cs<89> cs<88> cs<87> cs<86> cs<85>
+cs<84> cs<83> cs<82> cs<81> cs<80> cs<79> cs<78> cs<77> cs<76> cs<75> cs<74>
+cs<73> cs<72> cs<71> cs<70> cs<69> cs<68> cs<67> cs<66> cs<65> cs<64> cs<63>
+cs<62> cs<61> cs<60> cs<59> cs<58> cs<57> cs<56> cs<55> cs<54> cs<53> cs<52>
+cs<51> cs<50> cs<49> cs<48> cs<47> cs<46> cs<45> cs<44> cs<43> cs<42> cs<41>
+cs<40> cs<39> cs<38> cs<37> cs<36> cs<35> cs<34> cs<33> cs<32> cs<31> cs<30>
+cs<29> cs<28> cs<27> cs<26> cs<25> cs<24> cs<23> cs<22> cs<21> cs<20> cs<19>
+cs<18> cs<17> cs<16> cs<15> cs<14> cs<13> cs<12> cs<11> cs<10> cs<9> cs<8>
+cs<7> cs<6> cs<5> cs<4> cs<3> cs<2> cs<1> cs<0> ena pre xvld
XI63 a<6> a<5> a<4> a<3> a<2> a<1> a<0> cs<127> cs<126> cs<125> cs<124>
+cs<123> cs<122> cs<121> cs<120> cs<119> cs<118> cs<117> cs<116> cs<115>
+cs<114> cs<113> cs<112> cs<111> cs<110> cs<109> cs<108> cs<107> cs<106>
+cs<105> cs<104> cs<103> cs<102> cs<101> cs<100> cs<99> cs<98> cs<97> cs<96>
+cs<95> cs<94> cs<93> cs<92> cs<91> cs<90> cs<89> cs<88> cs<87> cs<86> cs<85>
+cs<84> cs<83> cs<82> cs<81> cs<80> cs<79> cs<78> cs<77> cs<76> cs<75> cs<74>
+cs<73> cs<72> cs<71> cs<70> cs<69> cs<68> cs<67> cs<66> cs<65> cs<64> cs<63>
+cs<62> cs<61> cs<60> cs<59> cs<58> cs<57> cs<56> cs<55> cs<54> cs<53> cs<52>
+cs<51> cs<50> cs<49> cs<48> cs<47> cs<46> cs<45> cs<44> cs<43> cs<42> cs<41>
+cs<40> cs<39> cs<38> cs<37> cs<36> cs<35> cs<34> cs<33> cs<32> cs<31> cs<30>
+cs<29> cs<28> cs<27> cs<26> cs<25> cs<24> cs<23> cs<22> cs<21> cs<20> cs<19>
+cs<18> cs<17> cs<16> cs<15> cs<14> cs<13> cs<12> cs<11> cs<10> cs<9> cs<8>
+cs<7> cs<6> cs<5> cs<4> cs<3> cs<2> cs<1> cs<0> net<0> net110 net108  
+col_sel7_128
XI66 a<6> a<5> a<4> a<3> a<2> a<1> a<0> cs<511> cs<510> cs<509> cs<508>
+cs<507> cs<506> cs<505> cs<504> cs<503> cs<502> cs<501> cs<500> cs<499>
+cs<498> cs<497> cs<496> cs<495> cs<494> cs<493> cs<492> cs<491> cs<490>
+cs<489> cs<488> cs<487> cs<486> cs<485> cs<484> cs<483> cs<482> cs<481>
+cs<480> cs<479> cs<478> cs<477> cs<476> cs<475> cs<474> cs<473> cs<472>
+cs<471> cs<470> cs<469> cs<468> cs<467> cs<466> cs<465> cs<464> cs<463>
+cs<462> cs<461> cs<460> cs<459> cs<458> cs<457> cs<456> cs<455> cs<454>
+cs<453> cs<452> cs<451> cs<450> cs<449> cs<448> cs<447> cs<446> cs<445>
+cs<444> cs<443> cs<442> cs<441> cs<440> cs<439> cs<438> cs<437> cs<436>
+cs<435> cs<434> cs<433> cs<432> cs<431> cs<430> cs<429> cs<428> cs<427>
+cs<426> cs<425> cs<424> cs<423> cs<422> cs<421> cs<420> cs<419> cs<418>
+cs<417> cs<416> cs<415> cs<414> cs<413> cs<412> cs<411> cs<410> cs<409>
+cs<408> cs<407> cs<406> cs<405> cs<404> cs<403> cs<402> cs<401> cs<400>
+cs<399> cs<398> cs<397> cs<396> cs<395> cs<394> cs<393> cs<392> cs<391>
+cs<390> cs<389> cs<388> cs<387> cs<386> cs<385> cs<384> net<3> net110 net108
+  col_sel7_128
XI65 a<6> a<5> a<4> a<3> a<2> a<1> a<0> cs<383> cs<382> cs<381> cs<380>
+cs<379> cs<378> cs<377> cs<376> cs<375> cs<374> cs<373> cs<372> cs<371>
+cs<370> cs<369> cs<368> cs<367> cs<366> cs<365> cs<364> cs<363> cs<362>
+cs<361> cs<360> cs<359> cs<358> cs<357> cs<356> cs<355> cs<354> cs<353>
+cs<352> cs<351> cs<350> cs<349> cs<348> cs<347> cs<346> cs<345> cs<344>
+cs<343> cs<342> cs<341> cs<340> cs<339> cs<338> cs<337> cs<336> cs<335>
+cs<334> cs<333> cs<332> cs<331> cs<330> cs<329> cs<328> cs<327> cs<326>
+cs<325> cs<324> cs<323> cs<322> cs<321> cs<320> cs<319> cs<318> cs<317>
+cs<316> cs<315> cs<314> cs<313> cs<312> cs<311> cs<310> cs<309> cs<308>
+cs<307> cs<306> cs<305> cs<304> cs<303> cs<302> cs<301> cs<300> cs<299>
+cs<298> cs<297> cs<296> cs<295> cs<294> cs<293> cs<292> cs<291> cs<290>
+cs<289> cs<288> cs<287> cs<286> cs<285> cs<284> cs<283> cs<282> cs<281>
+cs<280> cs<279> cs<278> cs<277> cs<276> cs<275> cs<274> cs<273> cs<272>
+cs<271> cs<270> cs<269> cs<268> cs<267> cs<266> cs<265> cs<264> cs<263>
+cs<262> cs<261> cs<260> cs<259> cs<258> cs<257> cs<256> net<2> net110 net108
+  col_sel7_128
XI64 a<6> a<5> a<4> a<3> a<2> a<1> a<0> cs<255> cs<254> cs<253> cs<252>
+cs<251> cs<250> cs<249> cs<248> cs<247> cs<246> cs<245> cs<244> cs<243>
+cs<242> cs<241> cs<240> cs<239> cs<238> cs<237> cs<236> cs<235> cs<234>
+cs<233> cs<232> cs<231> cs<230> cs<229> cs<228> cs<227> cs<226> cs<225>
+cs<224> cs<223> cs<222> cs<221> cs<220> cs<219> cs<218> cs<217> cs<216>
+cs<215> cs<214> cs<213> cs<212> cs<211> cs<210> cs<209> cs<208> cs<207>
+cs<206> cs<205> cs<204> cs<203> cs<202> cs<201> cs<200> cs<199> cs<198>
+cs<197> cs<196> cs<195> cs<194> cs<193> cs<192> cs<191> cs<190> cs<189>
+cs<188> cs<187> cs<186> cs<185> cs<184> cs<183> cs<182> cs<181> cs<180>
+cs<179> cs<178> cs<177> cs<176> cs<175> cs<174> cs<173> cs<172> cs<171>
+cs<170> cs<169> cs<168> cs<167> cs<166> cs<165> cs<164> cs<163> cs<162>
+cs<161> cs<160> cs<159> cs<158> cs<157> cs<156> cs<155> cs<154> cs<153>
+cs<152> cs<151> cs<150> cs<149> cs<148> cs<147> cs<146> cs<145> cs<144>
+cs<143> cs<142> cs<141> cs<140> cs<139> cs<138> cs<137> cs<136> cs<135>
+cs<134> cs<133> cs<132> cs<131> cs<130> cs<129> cs<128> net<1> net110 net108
+  col_sel7_128
XI61 a<8> a<7> ena net<3> net<2> net<1> net<0>   decoder2_4
XI55 pre net112   inv Ln=0.35u Wn=8u M=9 Lp=0.35u Wp=16u
XI54 net112 net110   inv Ln=0.35u Wn=8u M=27 Lp=0.35u Wp=16u
XI79 net106 net108   inv Ln=0.35u Wn=8u M=6 Lp=0.35u Wp=16u
XI80 xvld net106   inv Ln=0.35u Wn=10u M=2 Lp=0.35u Wp=20u
.ENDS

************************************************************************
* Library Name: Lassen_DRAM
* Cell Name: deco1m
* View Name: schematic
************************************************************************

.SUBCKT deco1m a0 a1 a2 ena pre wl xvld
c1 pre 0 1pf
XI32 a0 a1 a2 xvld ena net119  nand5 Lp=0.35u Wp=4u Ln=0.35u Wn=10u
MM17 wl net119 gnd! vbb! NMOS W=14u L=350.00n M=1
MM8  wl net119 vddh2! vddh2! PMOS W=28u L=350.00n M=1.0
.ENDS

************************************************************************
* Library Name: Lassen_DRAM
* Cell Name: deco3_8m
* View Name: schematic
************************************************************************

.SUBCKT deco3_8m a<2> a<1> a<0> ena pre wl<7> wl<6> wl<5> wl<4> wl<3> wl<2>
+wl<1> wl<0> xvld
XI51 net33 net31 net25 ena pre wl<7> xvld   deco1m
XI41 net35 net29 net27 ena pre wl<0> xvld   deco1m
XI49 net35 net31 net27 ena pre wl<2> xvld   deco1m
XI50 net35 net31 net25 ena pre wl<6> xvld   deco1m
XI47 net33 net29 net27 ena pre wl<1> xvld   deco1m
XI52 net33 net29 net25 ena pre wl<5> xvld   deco1m
XI48 net33 net31 net27 ena pre wl<3> xvld   deco1m
XI53 net35 net29 net25 ena pre wl<4> xvld   deco1m
XI88 net35 net33   inv Ln=0.35u Wn=4u M=1 Lp=0.35u Wp=8u
XI56 a<2> net27   inv Ln=0.35u Wn=4u M=1 Lp=0.35u Wp=8u
XI90 a<0> net35   inv Ln=0.35u Wn=4u M=1 Lp=0.35u Wp=8u
XI57 net27 net25   inv Ln=0.35u Wn=4u M=1 Lp=0.35u Wp=8u
XI54 net29 net31   inv Ln=0.35u Wn=4u M=1 Lp=0.35u Wp=8u
XI55 a<1> net29   inv Ln=0.35u Wn=4u M=1 Lp=0.35u Wp=8u
.ENDS

************************************************************************
* Library Name: Lassen_DRAM
* Cell Name: deco7_128
* View Name: schematic
************************************************************************

.SUBCKT deco7_128 a<6> a<5> a<4> a<3> a<2> a<1> a<0> ena pre wl<127> wl<126>
+wl<125> wl<124> wl<123> wl<122> wl<121> wl<120> wl<119> wl<118> wl<117>
+wl<116> wl<115> wl<114> wl<113> wl<112> wl<111> wl<110> wl<109> wl<108>
+wl<107> wl<106> wl<105> wl<104> wl<103> wl<102> wl<101> wl<100> wl<99> wl<98>
+wl<97> wl<96> wl<95> wl<94> wl<93> wl<92> wl<91> wl<90> wl<89> wl<88> wl<87>
+wl<86> wl<85> wl<84> wl<83> wl<82> wl<81> wl<80> wl<79> wl<78> wl<77> wl<76>
+wl<75> wl<74> wl<73> wl<72> wl<71> wl<70> wl<69> wl<68> wl<67> wl<66> wl<65>
+wl<64> wl<63> wl<62> wl<61> wl<60> wl<59> wl<58> wl<57> wl<56> wl<55> wl<54>
+wl<53> wl<52> wl<51> wl<50> wl<49> wl<48> wl<47> wl<46> wl<45> wl<44> wl<43>
+wl<42> wl<41> wl<40> wl<39> wl<38> wl<37> wl<36> wl<35> wl<34> wl<33> wl<32>
+wl<31> wl<30> wl<29> wl<28> wl<27> wl<26> wl<25> wl<24> wl<23> wl<22> wl<21>